inputs/GSO_Base_Network/Rural/Lines.dss
New Line.clineacable(cramaee():s_ncctt2333->s_ncctt2341) Units=mi Length=0.0150057989645 bus1=s_ncctt2333.1 bus2=s_ncctt2341.1 switch=n phases=1 Linecode=1P_Code0

New Line.clineacable(cramaee():s_dummy3798->s_ncctt1510_bt) Units=mi Length=0.0122485894262 bus1=s_ncctt1510_bt.1.2 bus2=s_dummy3798.1.2 switch=n phases=2 Linecode=2P_Code1

New Line.clineacable(cramaee():s_dummy4219->s_ncctt1668_bt) Units=mi Length=0.000621371 bus1=s_ncctt1668_bt.1.2 bus2=s_dummy4219.1.2 switch=n phases=2 Linecode=2P_Code2

New Line.clineacable(cramaee():rclv1170->s_ncctt1932_bt) Units=mi Length=0.0143493826401 bus1=s_ncctt1932_bt.1.2 bus2=rclv1170.1.2 switch=n phases=2 Linecode=2P_Code3

New Line.switch(cramaee():s_ncctt2669->s_ncctt2670)_s_1696 Units=mi Length=0.000621371 bus1=s_ncctt2669.1 bus2=s_ncctt2669->s_ncctt2670_s.1 switch=y phases=3 Linecode=1P_Code4

New Line.switch(cramaee():s_ncctt2669->s_ncctt2670)_s_1697 Units=mi Length=0.000621371 bus1=s_ncctt2669->s_ncctt2670_s_s.1 bus2=s_ncctt2670.1 switch=y phases=3 Linecode=1P_Code4

New Line.clineacable(cramaee():rclv1900->s_ncctt2324_bt) Units=mi Length=0.0156280398839 bus1=s_ncctt2324_bt.1.2 bus2=rclv1900.1.2 switch=n phases=2 Linecode=2P_Code3

New Line.clineacable(cramaee():s_ncctt2619->s_ncctt2647) Units=mi Length=0.063325782723 bus1=s_ncctt2619.1.2.3 bus2=s_ncctt2647.1.2.3 switch=n phases=3 Linecode=3P_Code5

New Line.clineacable(cramaee():s_dummy984->s_ncctt220_bt) Units=mi Length=0.0158665842108 bus1=s_ncctt220_bt.1.2 bus2=s_dummy984.1.2 switch=n phases=2 Linecode=2P_Code3

New Line.clineacable(cramaee():s_dummy3491->s_ncctt1544_bt) Units=mi Length=0.0076633064059 bus1=s_ncctt1544_bt.1.2 bus2=s_dummy3491.1.2 switch=n phases=2 Linecode=2P_Code3

New Line.switch(cramaee():s_ncctt1663->s_ncctt1686)_s_1937 Units=mi Length=0.000621371 bus1=s_ncctt1686.1.2.3 bus2=s_ncctt1663->s_ncctt1686_s_s.1.2.3 switch=y phases=3 Linecode=3P_Code6

New Line.clineacable(cramaee():s_dummy2187->s_ncctt827_bt) Units=mi Length=0.0189390773945 bus1=s_ncctt827_bt.1.2 bus2=s_dummy2187.1.2 switch=n phases=2 Linecode=2P_Code1

New Line.clineacable(cramaee():s_dummy4949->s_ncctt2351_bt) Units=mi Length=0.0097094811089 bus1=s_ncctt2351_bt.1.2 bus2=s_dummy4949.1.2 switch=n phases=2 Linecode=2P_Code3

New Line.clineacable(cramaee():rclv384->s_dummy2114) Units=mi Length=0.0136731445808 bus1=s_dummy2114.1.2 bus2=rclv384.1.2 switch=n phases=2 Linecode=2P_Code3

New Line.clineacable(cramaee():s_dummy5951->s_dummy5956) Units=mi Length=0.012405672015 bus1=s_dummy5956.1.2 bus2=s_dummy5951.1.2 switch=n phases=2 Linecode=2P_Code3

New Line.clineacable(cramaee():rclv2758->s_ncctt1399_bt) Units=mi Length=0.0219640356967 bus1=s_ncctt1399_bt.1.2 bus2=rclv2758.1.2 switch=n phases=2 Linecode=2P_Code3

New Line.clineacable(cramaee():rclv3826->s_dummy1977) Units=mi Length=0.0184965369683 bus1=s_dummy1977.1.2 bus2=rclv3826.1.2 switch=n phases=2 Linecode=2P_Code3

New Line.clineacable(cramaee():rclv4767->s_dummy788) Units=mi Length=0.0221009858651 bus1=s_dummy788.1.2 bus2=rclv4767.1.2 switch=n phases=2 Linecode=2P_Code3

New Line.clineacable(cramaee():rclv2526->s_ncctt1060_bt) Units=mi Length=0.0569692816672 bus1=s_ncctt1060_bt.1.2 bus2=rclv2526.1.2 switch=n phases=2 Linecode=2P_Code1

New Line.clineacable(cramaee():s_dummy4583->s_ncctt1990_bt) Units=mi Length=0.000621371 bus1=s_ncctt1990_bt.1.2 bus2=s_dummy4583.1.2 switch=n phases=2 Linecode=2P_Code2

New Line.clineacable(cramaee():s_dummy1880->s_ncctt671_bt) Units=mi Length=0.000621371 bus1=s_ncctt671_bt.1.2 bus2=s_dummy1880.1.2 switch=n phases=2 Linecode=2P_Code3

New Line.clineacable(cramaee():s_ncctt1624->s_ncctt1635) Units=mi Length=0.0576895127933 bus1=s_ncctt1635.2 bus2=s_ncctt1624.2 switch=n phases=1 Linecode=1P_Code0

New Line.clineacable(cramaee():s_ncctt1514->s_ncctt1519) Units=mi Length=0.110763730347 bus1=s_ncctt1514->s_ncctt1519_s_s.1 bus2=s_ncctt1514->s_ncctt1519_s.1 switch=n phases=1 Linecode=1P_Code7

New Line.clineacable(cramaee():s_ncctt22->s_ncctt33) Units=mi Length=0.0377406453867 bus1=s_ncctt22.1.2.3 bus2=s_ncctt33.1.2.3 switch=n phases=3 Linecode=3P_Code5

New Line.clineacable(cramaee():rclv4216->s_ncctt736_bt) Units=mi Length=0.0324863943478 bus1=s_ncctt736_bt.1.2 bus2=rclv4216.1.2 switch=n phases=2 Linecode=2P_Code3

New Line.clineacable(cramaee():rclv4709->s_dummy980) Units=mi Length=0.0117380088755 bus1=s_dummy980.1.2 bus2=rclv4709.1.2 switch=n phases=2 Linecode=2P_Code3

New Line.clineacable(cramaee():s_dummy3808->s_dummy3809) Units=mi Length=0.034292844119 bus1=s_dummy3809.1.2 bus2=s_dummy3808.1.2 switch=n phases=2 Linecode=2P_Code3

New Line.clineacable(cramaee():s_ncctt2391->s_ncctt2395) Units=mi Length=0.0131040308819 bus1=s_ncctt2395.1.2.3 bus2=s_ncctt2391.1.2.3 switch=n phases=3 Linecode=3P_Code5

New Line.clineacable(cramaee():rclv1201->s_ncctt1894_bt) Units=mi Length=0.0496911631442 bus1=s_ncctt1894_bt.1.2 bus2=rclv1201.1.2 switch=n phases=2 Linecode=2P_Code3

New Line.switch(cramaee():s_ncctt511->s_ncctt522)_s_1366 Units=mi Length=0.000621371 bus1=s_ncctt511->s_ncctt522_s.1.2.3 bus2=s_ncctt511.1.2.3 switch=y phases=3 Linecode=3P_Code6

New Line.clineacable(cramaee():s_dummy399->s_dummy400) Units=mi Length=0.0311079449214 bus1=s_dummy399.1.2 bus2=s_dummy400.1.2 switch=n phases=2 Linecode=2P_Code3

New Line.clineacable(cramaee():s_ncctt1776->s_ncctt1785) Units=mi Length=0.064935133613 bus1=s_ncctt1776.1 bus2=s_ncctt1785.1 switch=n phases=1 Linecode=1P_Code0

New Line.clineacable(cramaee():s_dummy4970->s_ncctt2333_bt) Units=mi Length=0.007456452 bus1=s_ncctt2333_bt.1.2 bus2=s_dummy4970.1.2 switch=n phases=2 Linecode=2P_Code3

New Line.clineacable(cramaee():s_dummy638->s_dummy639) Units=mi Length=0.0111475200142 bus1=s_dummy638.1.2 bus2=s_dummy639.1.2 switch=n phases=2 Linecode=2P_Code3

New Line.clineacable(cramaee():rclv825->s_ncctt553_bt) Units=mi Length=0.070254690744 bus1=s_ncctt553_bt.1.2 bus2=rclv825.1.2 switch=n phases=2 Linecode=2P_Code3

New Line.clineacable(cramaee():rclv6025->s_dummy3203) Units=mi Length=0.0314684643756 bus1=s_dummy3203.1.2 bus2=rclv6025.1.2 switch=n phases=2 Linecode=2P_Code3

New Line.clineacable(cramaee():s_ncctt57->s_ncctt62) Units=mi Length=0.101616527856 bus1=s_ncctt62.2 bus2=s_ncctt57.2 switch=n phases=1 Linecode=1P_Code0

New Line.clineacable(cramaee():s_ncctt2295->s_ncctt2301) Units=mi Length=0.119406379586 bus1=s_ncctt2301.2 bus2=s_ncctt2295.2 switch=n phases=1 Linecode=1P_Code0

New Line.clineacable(cramaee():s_ncctt1938->s_ncctt1955) Units=mi Length=0.121845882132 bus1=s_ncctt1938.1.2.3 bus2=s_ncctt1955.1.2.3 switch=n phases=3 Linecode=3P_Code5

New Line.clineacable(cramaee():rclv4289->s_ncctt638_bt) Units=mi Length=0.037059809182 bus1=s_ncctt638_bt.1.2 bus2=rclv4289.1.2 switch=n phases=2 Linecode=2P_Code3

New Line.clineacable(cramaee():s_ncctt375->s_ncctt406) Units=mi Length=0.071877090425 bus1=s_ncctt375.1 bus2=s_ncctt406.1 switch=n phases=1 Linecode=1P_Code0

New Line.clineacable(cramaee():s_dummy3498->s_ncctt1568_bt) Units=mi Length=0.0328805921102 bus1=s_ncctt1568_bt.1.2 bus2=s_dummy3498.1.2 switch=n phases=2 Linecode=2P_Code3

New Line.clineacable(cramaee():rclv3257->s_ncctt1833_bt) Units=mi Length=0.0571188456669 bus1=s_ncctt1833_bt.1.2 bus2=rclv3257.1.2 switch=n phases=2 Linecode=2P_Code3

New Line.switch(cramaee():s_ncctt1663->s_ncctt1686)_s_1938 Units=mi Length=0.000621371 bus1=s_ncctt1663->s_ncctt1686_s.1.2.3 bus2=s_ncctt1663.1.2.3 switch=y phases=3 Linecode=3P_Code6

New Line.clineacable(cramaee():s_dummy3142->s_ncctt1374_bt) Units=mi Length=0.000621371 bus1=s_ncctt1374_bt.1.2 bus2=s_dummy3142.1.2 switch=n phases=2 Linecode=2P_Code3

New Line.clineacable(cramaee():s_ncctt2205->s_ncctt2210) Units=mi Length=0.073567840916 bus1=s_ncctt2210.1.2.3 bus2=s_ncctt2205.1.2.3 switch=n phases=3 Linecode=3P_Code5

New Line.switch(cramaee():s_ncctt1056->s_ncctt1076)_s_1535 Units=mi Length=0.000621371 bus1=s_ncctt1056->s_ncctt1076_s.1.2.3 bus2=s_ncctt1056.1.2.3 switch=y phases=3 Linecode=3P_Code6

New Line.switch(cramaee():s_ncctt1056->s_ncctt1076)_s_1534 Units=mi Length=0.000621371 bus1=s_ncctt1076.1.2.3 bus2=s_ncctt1056->s_ncctt1076_s_s.1.2.3 switch=y phases=3 Linecode=3P_Code6

New Line.clineacable(cramaee():rclv4666->s_dummy766) Units=mi Length=0.0105040903437 bus1=s_dummy766.1.2 bus2=rclv4666.1.2 switch=n phases=2 Linecode=2P_Code3

New Line.clineacable(cramaee():s_dummy967->s_dummy968) Units=mi Length=0.0096941953823 bus1=s_dummy967.1.2 bus2=s_dummy968.1.2 switch=n phases=2 Linecode=2P_Code3

New Line.clineacable(cramaee():s_dummy4202->s_dummy4203) Units=mi Length=0.000621371 bus1=s_dummy4203.1.2 bus2=s_dummy4202.1.2 switch=n phases=2 Linecode=2P_Code2

New Line.clineacable(cramaee():rclv1643->s_ncctt1994_bt) Units=mi Length=0.0106292344631 bus1=s_ncctt1994_bt.1.2 bus2=rclv1643.1.2 switch=n phases=2 Linecode=2P_Code3

New Line.clineacable(cramaee():rclv2471->s_ncctt1032_bt) Units=mi Length=0.0126979027963 bus1=s_ncctt1032_bt.1.2 bus2=rclv2471.1.2 switch=n phases=2 Linecode=2P_Code1

New Line.clineacable(cramaee():rclv4287->s_ncctt642_bt) Units=mi Length=0.029758699932 bus1=s_ncctt642_bt.1.2 bus2=rclv4287.1.2 switch=n phases=2 Linecode=2P_Code3

New Line.clineacable(cramaee():rclv4125->s_dummy972) Units=mi Length=0.0275793654237 bus1=s_dummy972.1.2 bus2=rclv4125.1.2 switch=n phases=2 Linecode=2P_Code3

New Line.clineacable(cramaee():rclv2552->s_dummy2824) Units=mi Length=0.011692338107 bus1=s_dummy2824.1.2 bus2=rclv2552.1.2 switch=n phases=2 Linecode=2P_Code1

New Line.clineacable(cramaee():s_dummy4330->s_ncctt1839_bt) Units=mi Length=0.0187738548456 bus1=s_ncctt1839_bt.1.2 bus2=s_dummy4330.1.2 switch=n phases=2 Linecode=2P_Code3

New Line.clineacable(cramaee():s_dummy747->s_dummy750) Units=mi Length=0.0187873385963 bus1=s_dummy747.1.2 bus2=s_dummy750.1.2 switch=n phases=2 Linecode=2P_Code3

New Line.clineacable(cramaee():s_ncctt1057->s_ncctt1063) Units=mi Length=0.109225215751 bus1=s_ncctt1057->s_ncctt1063_s.1.2.3 bus2=s_ncctt1057->s_ncctt1063_s_s.1.2.3 switch=n phases=3 Linecode=3P_Code8

New Line.clineacable(cramaee():s_dummy5641->s_dummy5643) Units=mi Length=0.000621371 bus1=s_dummy5641.1.2 bus2=s_dummy5643.1.2 switch=n phases=2 Linecode=2P_Code2

New Line.clineacable(cramaee():s_ncctt1575->s_ncctt1580) Units=mi Length=0.067087562757 bus1=s_ncctt1575.2 bus2=s_ncctt1580.2 switch=n phases=1 Linecode=1P_Code0

New Line.switch(cramaee():s_ncctt1898->s_ncctt1921)_s_1319 Units=mi Length=0.000621371 bus1=s_ncctt1921.1.2.3 bus2=s_ncctt1898->s_ncctt1921_s_s.1.2.3 switch=y phases=3 Linecode=3P_Code6

New Line.switch(cramaee():s_ncctt1613->s_ncctt1652)_s_1128 Units=mi Length=0.000621371 bus1=s_ncctt1613.1.2.3 bus2=s_ncctt1613->s_ncctt1652_s.1.2.3 switch=y phases=3 Linecode=3P_Code6

New Line.clineacable(cramaee():s_dummy6065->s_dummy6066) Units=mi Length=0.0611853460393 bus1=s_dummy6065.1.2 bus2=s_dummy6066.1.2 switch=n phases=2 Linecode=2P_Code1

New Line.clineacable(cramaee():rclv597->s_ncctt2532_bt) Units=mi Length=0.0509243981679 bus1=s_ncctt2532_bt.1.2 bus2=rclv597.1.2 switch=n phases=2 Linecode=2P_Code3

New Line.clineacable(cramaee():rclv5331->s_ncctt1535_bt) Units=mi Length=0.0211335112181 bus1=s_ncctt1535_bt.1.2 bus2=rclv5331.1.2 switch=n phases=2 Linecode=2P_Code3

New Line.clineacable(cramaee():rclv43->s_dummy946) Units=mi Length=0.0091698203954 bus1=s_dummy946.1.2 bus2=rclv43.1.2 switch=n phases=2 Linecode=2P_Code3

New Line.clineacable(cramaee():rclv1574->s_ncctt2230_bt) Units=mi Length=0.0296713351694 bus1=s_ncctt2230_bt.1.2 bus2=rclv1574.1.2 switch=n phases=2 Linecode=2P_Code1

New Line.clineacable(cramaee():rclv4970->s_dummy5145) Units=mi Length=0.0093340487507 bus1=s_dummy5145.1.2 bus2=rclv4970.1.2 switch=n phases=2 Linecode=2P_Code3

New Line.clineacable(cramaee():s_dummy1569->s_dummy1571) Units=mi Length=0.000621371 bus1=s_dummy1571.1.2 bus2=s_dummy1569.1.2 switch=n phases=2 Linecode=2P_Code3

New Line.clineacable(cramaee():s_dummy4401->s_ncctt1882_bt) Units=mi Length=0.0225604897196 bus1=s_ncctt1882_bt.1.2 bus2=s_dummy4401.1.2 switch=n phases=2 Linecode=2P_Code3

New Line.clineacable(cramaee():s_dummy1158->s_dummy1160) Units=mi Length=0.000621371 bus1=s_dummy1158.1.2 bus2=s_dummy1160.1.2 switch=n phases=2 Linecode=2P_Code2

New Line.switch(cramaee():s_ncctt2546->s_ncctt497)_s_1258 Units=mi Length=0.000621371 bus1=s_ncctt2546->s_ncctt497_s.3 bus2=s_ncctt2546.3 switch=y phases=3 Linecode=1P_Code4

New Line.switch(cramaee():s_ncctt2546->s_ncctt497)_s_1257 Units=mi Length=0.000621371 bus1=s_ncctt497.3 bus2=s_ncctt2546->s_ncctt497_s_s.3 switch=y phases=3 Linecode=1P_Code4

New Line.clineacable(cramaee():s_ncctt1763->s_ncctt177) Units=mi Length=0.081108799372 bus1=s_ncctt1763->s_ncctt177_s_s.1.2.3 bus2=s_ncctt1763->s_ncctt177_s.1.2.3 switch=n phases=3 Linecode=3P_Code8

New Line.switch(cramaee():s_ncctt1073->s_ncctt1079)_s_1443 Units=mi Length=0.000621371 bus1=s_ncctt1073->s_ncctt1079_s_s.3 bus2=s_ncctt1079.3 switch=y phases=3 Linecode=1P_Code4

New Line.switch(cramaee():s_ncctt1073->s_ncctt1079)_s_1442 Units=mi Length=0.000621371 bus1=s_ncctt1073.3 bus2=s_ncctt1073->s_ncctt1079_s.3 switch=y phases=3 Linecode=1P_Code4

New Line.clineacable(cramaee():s_ncctt656->s_ncctt691) Units=mi Length=0.087014930727 bus1=s_ncctt656.1.2.3 bus2=s_ncctt691.1.2.3 switch=n phases=3 Linecode=3P_Code5

New Line.clineacable(cramaee():s_ncctt505->s_ncctt519) Units=mi Length=0.143555963501 bus1=s_ncctt505->s_ncctt519_s_s.1 bus2=s_ncctt505->s_ncctt519_s.1 switch=n phases=1 Linecode=1P_Code7

New Line.clineacable(cramaee():s_dummy1784->s_ncctt630_bt) Units=mi Length=0.000621371 bus1=s_ncctt630_bt.1.2 bus2=s_dummy1784.1.2 switch=n phases=2 Linecode=2P_Code3

New Line.clineacable(cramaee():s_ncctt1254->s_ncctt1269) Units=mi Length=0.065890802211 bus1=s_ncctt1269.2 bus2=s_ncctt1254.2 switch=n phases=1 Linecode=1P_Code0

New Line.switch(cramaee():s_ncctt1251->s_ncctt1592)_s_1157 Units=mi Length=0.000621371 bus1=s_ncctt1251->s_ncctt1592_s.1.2.3 bus2=s_ncctt1251.1.2.3 switch=y phases=3 Linecode=3P_Code6

New Line.clineacable(cramaee():rclv894->s_ncctt589_bt) Units=mi Length=0.000621371 bus1=s_ncctt589_bt.1.2 bus2=rclv894.1.2 switch=n phases=2 Linecode=2P_Code3

New Line.clineacable(cramaee():s_ncctt728->s_ncctt756) Units=mi Length=0.0218866750072 bus1=s_ncctt756.1.2.3 bus2=s_ncctt728.1.2.3 switch=n phases=3 Linecode=3P_Code5

New Line.clineacable(cramaee():rclv1095->s_dummy4524) Units=mi Length=0.027304284482 bus1=s_dummy4524.1.2 bus2=rclv1095.1.2 switch=n phases=2 Linecode=2P_Code3

New Line.fuse(cramaee():s_ncctt1064->s_ncctt1107)_s_2166 Units=mi Length=0.000621371 bus1=s_ncctt1107.2 bus2=s_ncctt1064->s_ncctt1107_s.2 switch=y phases=3 Linecode=1P_Code4

New Line.clineacable(cramaee():s_dummy5185->s_ncctt2218_bt) Units=mi Length=0.000621371 bus1=s_ncctt2218_bt.1.2 bus2=s_dummy5185.1.2 switch=n phases=2 Linecode=2P_Code2

New Line.clineacable(cramaee():rclv4658->s_dummy999) Units=mi Length=0.012365904271 bus1=s_dummy999.1.2 bus2=rclv4658.1.2 switch=n phases=2 Linecode=2P_Code3

New Line.clineacable(cramaee():s_dummy2225->s_dummy2227) Units=mi Length=0.000621371 bus1=s_dummy2225.1.2 bus2=s_dummy2227.1.2 switch=n phases=2 Linecode=2P_Code1

New Line.clineacable(cramaee():s_ncctt546->s_ncctt549) Units=mi Length=0.000621371 bus1=s_ncctt546->s_ncctt549_s_s.1 bus2=s_ncctt546->s_ncctt549_s.1 switch=n phases=1 Linecode=1P_Code7

New Line.clineacable(cramaee():rclv913->s_dummy1303) Units=mi Length=0.0456161499891 bus1=s_dummy1303.1.2 bus2=rclv913.1.2 switch=n phases=2 Linecode=2P_Code3

New Line.clineacable(cramaee():s_ncctt1021->s_ncctt2503) Units=mi Length=0.139228114486 bus1=s_ncctt2503.1.2.3 bus2=s_ncctt1021.1.2.3 switch=n phases=3 Linecode=3P_Code5

New Line.clineacable(cramaee():rclv1321->s_dummy4682) Units=mi Length=0.0193058726958 bus1=s_dummy4682.1.2 bus2=rclv1321.1.2 switch=n phases=2 Linecode=2P_Code3

New Line.clineacable(cramaee():s_ncctt1110->s_ncctt1195) Units=mi Length=0.0521844142817 bus1=s_ncctt1110.1.2.3 bus2=s_ncctt1195.1.2.3 switch=n phases=3 Linecode=3P_Code5

New Line.clineacable(cramaee():s_ncctt1664->s_ncctt1679) Units=mi Length=0.115287932598 bus1=s_ncctt1664.1.2.3 bus2=s_ncctt1679.1.2.3 switch=n phases=3 Linecode=3P_Code5

New Line.clineacable(cramaee():s_dummy3651->s_ncctt1461_bt) Units=mi Length=0.009496412993 bus1=s_ncctt1461_bt.1.2 bus2=s_dummy3651.1.2 switch=n phases=2 Linecode=2P_Code3

New Line.clineacable(cramaee():s_dummy5279->s_ncctt2260_bt) Units=mi Length=0.019422193347 bus1=s_ncctt2260_bt.1.2 bus2=s_dummy5279.1.2 switch=n phases=2 Linecode=2P_Code3

New Line.clineacable(cramaee():s_dummy476->s_ncctt346_bt) Units=mi Length=0.0115931672954 bus1=s_ncctt346_bt.1.2 bus2=s_dummy476.1.2 switch=n phases=2 Linecode=2P_Code2

New Line.clineacable(cramaee():s_dummy2173->s_ncctt822_bt) Units=mi Length=0.0537594654925 bus1=s_ncctt822_bt.1.2 bus2=s_dummy2173.1.2 switch=n phases=2 Linecode=2P_Code3

New Line.clineacable(cramaee():rclv4382->s_ncctt658_bt) Units=mi Length=0.00154955635867 bus1=s_ncctt658_bt.1.2 bus2=rclv4382.1.2 switch=n phases=2 Linecode=2P_Code3

New Line.clineacable(cramaee():rclv3711->s_dummy38) Units=mi Length=0.0265949894855 bus1=s_dummy38.1.2 bus2=rclv3711.1.2 switch=n phases=2 Linecode=2P_Code2

New Line.clineacable(cramaee():s_dummy2200->s_ncctt836_bt) Units=mi Length=0.000621371 bus1=s_ncctt836_bt.1.2 bus2=s_dummy2200.1.2 switch=n phases=2 Linecode=2P_Code3

New Line.clineacable(cramaee():rclv3956->s_dummy274) Units=mi Length=0.0367114685994 bus1=s_dummy274.1.2 bus2=rclv3956.1.2 switch=n phases=2 Linecode=2P_Code3

New Line.switch(cramaee():s_ncctt662->s_ncctt684)_s_1793 Units=mi Length=0.000621371 bus1=s_ncctt684.1.2.3 bus2=s_ncctt662->s_ncctt684_s.1.2.3 switch=y phases=3 Linecode=3P_Code6

New Line.clineacable(cramaee():rclv4493->s_ncctt274_bt) Units=mi Length=0.0095228833976 bus1=s_ncctt274_bt.1.2 bus2=rclv4493.1.2 switch=n phases=2 Linecode=2P_Code3

New Line.clineacable(cramaee():s_ncctt1234->s_ncctt1616) Units=mi Length=0.000621371 bus1=s_ncctt1234.1.2.3 bus2=s_ncctt1616.1.2.3 switch=n phases=3 Linecode=3P_Code5

New Line.clineacable(cramaee():rclv5602->s_ncctt1288_bt) Units=mi Length=0.0257554551274 bus1=s_ncctt1288_bt.1.2 bus2=rclv5602.1.2 switch=n phases=2 Linecode=2P_Code3

New Line.clineacable(cramaee():s_ncctt1898->s_ncctt1925) Units=mi Length=0.0097616762729 bus1=s_ncctt1898->s_ncctt1925_s.1.2.3 bus2=s_ncctt1898->s_ncctt1925_s_s.1.2.3 switch=n phases=3 Linecode=3P_Code8

New Line.clineacable(cramaee():s_dummy3770->s_ncctt1512_bt) Units=mi Length=0.0411446399989 bus1=s_ncctt1512_bt.1.2 bus2=s_dummy3770.1.2 switch=n phases=2 Linecode=2P_Code1

New Line.clineacable(cramaee():s_ncctt2040->s_ncctt2058) Units=mi Length=0.0508663621165 bus1=s_ncctt2040.1.2.3 bus2=s_ncctt2058.1.2.3 switch=n phases=3 Linecode=3P_Code5

New Line.clineacable(cramaee():s_dummy4094->s_dummy4095) Units=mi Length=0.009909624708 bus1=s_dummy4095.1.2 bus2=s_dummy4094.1.2 switch=n phases=2 Linecode=2P_Code3

New Line.clineacable(cramaee():s_dummy286->s_dummy288) Units=mi Length=0.0216198582998 bus1=s_dummy288.1.2 bus2=s_dummy286.1.2 switch=n phases=2 Linecode=2P_Code3

New Line.clineacable(cramaee():s_ncctt800->s_ncctt807) Units=mi Length=0.108184419326 bus1=s_ncctt800.1.2.3 bus2=s_ncctt807.1.2.3 switch=n phases=3 Linecode=3P_Code5

New Line.clineacable(cramaee():rclv4624->s_dummy997) Units=mi Length=0.0153599182974 bus1=s_dummy997.1.2 bus2=rclv4624.1.2 switch=n phases=2 Linecode=2P_Code3

New Line.clineacable(cramaee():s_dummy1962->s_ncctt713_bt) Units=mi Length=0.0135887002619 bus1=s_ncctt713_bt.1.2 bus2=s_dummy1962.1.2 switch=n phases=2 Linecode=2P_Code3

New Line.clineacable(cramaee():rclv514->s_ncctt2521_bt) Units=mi Length=0.029772991465 bus1=s_ncctt2521_bt.1.2 bus2=rclv514.1.2 switch=n phases=2 Linecode=2P_Code1

New Line.fuse(cramaee():s_ncctt505->s_ncctt519)_s_2076 Units=mi Length=0.000621371 bus1=s_ncctt519.1 bus2=s_ncctt505->s_ncctt519_s_s_s.1 switch=y phases=3 Linecode=1P_Code4

New Line.clineacable(cramaee():rclv5798->s_dummy3253) Units=mi Length=0.0144864570827 bus1=s_dummy3253.1.2 bus2=rclv5798.1.2 switch=n phases=2 Linecode=2P_Code3

New Line.clineacable(cramaee():s_dummy1644->s_ncctt775_bt) Units=mi Length=0.000621371 bus1=s_ncctt775_bt.1.2 bus2=s_dummy1644.1.2 switch=n phases=2 Linecode=2P_Code2

New Line.clineacable(cramaee():rclv4614->s_dummy692) Units=mi Length=0.0093412566543 bus1=s_dummy692.1.2 bus2=rclv4614.1.2 switch=n phases=2 Linecode=2P_Code3

New Line.clineacable(cramaee():rclv3142->s_dummy4035) Units=mi Length=0.0270119915636 bus1=s_dummy4035.1.2 bus2=rclv3142.1.2 switch=n phases=2 Linecode=2P_Code3

New Line.fuse(cramaee():s_ncctt10->s_ncctt6)_s_1986 Units=mi Length=0.000621371 bus1=s_ncctt10.3 bus2=s_ncctt10->s_ncctt6_s.3 switch=y phases=3 Linecode=1P_Code4

New Line.clineacable(cramaee():s_dummy4120->s_dummy4122) Units=mi Length=0.0105371472809 bus1=s_dummy4122.1.2 bus2=s_dummy4120.1.2 switch=n phases=2 Linecode=2P_Code3

New Line.clineacable(cramaee():rclv5205->s_ncctt1637_bt) Units=mi Length=0.0330632751842 bus1=s_ncctt1637_bt.1.2 bus2=rclv5205.1.2 switch=n phases=2 Linecode=2P_Code1

New Line.fuse(cramaee():s_ncctt2018->s_ncctt2023)_s_2300 Units=mi Length=0.000621371 bus1=s_ncctt2018.1 bus2=s_ncctt2018->s_ncctt2023_s.1 switch=y phases=3 Linecode=1P_Code4

New Line.clineacable(cramaee():s_ncctt1433->s_ncctt1450) Units=mi Length=0.0320868527948 bus1=s_ncctt1450.1.2.3 bus2=s_ncctt1433.1.2.3 switch=n phases=3 Linecode=3P_Code5

New Line.clineacable(cramaee():s_dummy42->s_ncctt24_bt) Units=mi Length=0.000621371 bus1=s_ncctt24_bt.1.2 bus2=s_dummy42.1.2 switch=n phases=2 Linecode=2P_Code2

New Line.clineacable(cramaee():rclv2907->s_ncctt1179_bt) Units=mi Length=0.00176544549891 bus1=s_ncctt1179_bt.1.2 bus2=rclv2907.1.2 switch=n phases=2 Linecode=2P_Code3

New Line.clineacable(cramaee():s_ncctt306->s_ncctt307) Units=mi Length=0.079905825116 bus1=s_ncctt306.1.2.3 bus2=s_ncctt306->s_ncctt307_s.1.2.3 switch=n phases=3 Linecode=3P_Code5

New Line.clineacable(cramaee():s_dummy330->s_dummy332) Units=mi Length=0.0281075307737 bus1=s_dummy330.1.2 bus2=s_dummy332.1.2 switch=n phases=2 Linecode=2P_Code3

New Line.clineacable(cramaee():s_ncctt1526->s_ncctt1536) Units=mi Length=0.0329929981241 bus1=s_ncctt1536.1.2.3 bus2=s_ncctt1526.1.2.3 switch=n phases=3 Linecode=3P_Code5

New Line.clineacable(cramaee():s_ncctt1982->s_ncctt1991) Units=mi Length=0.110165971445 bus1=s_ncctt1991.1.2.3 bus2=s_ncctt1982.1.2.3 switch=n phases=3 Linecode=3P_Code5

New Line.clineacable(cramaee():s_dummy1216->s_ncctt540_bt) Units=mi Length=0.0176117668014 bus1=s_ncctt540_bt.1.2 bus2=s_dummy1216.1.2 switch=n phases=2 Linecode=2P_Code1

New Line.clineacable(cramaee():s_dummy4699->s_ncctt2048_bt) Units=mi Length=0.000621371 bus1=s_ncctt2048_bt.1.2 bus2=s_dummy4699.1.2 switch=n phases=2 Linecode=2P_Code2

New Line.clineacable(cramaee():rclv3213->s_dummy4298) Units=mi Length=0.0296540610556 bus1=s_dummy4298.1.2 bus2=rclv3213.1.2 switch=n phases=2 Linecode=2P_Code3

New Line.clineacable(cramaee():s_dummy2529->s_dummy2531) Units=mi Length=0.0124627760099 bus1=s_dummy2529.1.2 bus2=s_dummy2531.1.2 switch=n phases=2 Linecode=2P_Code3

New Line.clineacable(cramaee():rclv4271->s_dummy1762) Units=mi Length=0.0121318338153 bus1=s_dummy1762.1.2 bus2=rclv4271.1.2 switch=n phases=2 Linecode=2P_Code3

New Line.clineacable(cramaee():rclv1474->s_ncctt2197_bt) Units=mi Length=0.0323351526464 bus1=s_ncctt2197_bt.1.2 bus2=rclv1474.1.2 switch=n phases=2 Linecode=2P_Code1

New Line.clineacable(cramaee():rclv5443->s_ncctt1580_bt) Units=mi Length=0.0487786176936 bus1=s_ncctt1580_bt.1.2 bus2=rclv5443.1.2 switch=n phases=2 Linecode=2P_Code3

New Line.clineacable(cramaee():s_ncctt896->s_ncctt897) Units=mi Length=0.0458274782662 bus1=s_ncctt896.3 bus2=s_ncctt897.3 switch=n phases=1 Linecode=1P_Code0

New Line.switch(cramaee():s_ncctt1499->s_ncctt1510)_s_1006 Units=mi Length=0.000621371 bus1=s_ncctt1499->s_ncctt1510_s_s.3 bus2=s_ncctt1510.3 switch=y phases=3 Linecode=1P_Code4

New Line.clineacable(cramaee():rclv5456->s_ncctt1588_bt) Units=mi Length=0.0242948604548 bus1=s_ncctt1588_bt.1.2 bus2=rclv5456.1.2 switch=n phases=2 Linecode=2P_Code3

New Line.clineacable(cramaee():rclv6321->s_dummy1462) Units=mi Length=0.028765127703 bus1=s_dummy1462.1.2 bus2=rclv6321.1.2 switch=n phases=2 Linecode=2P_Code3

New Line.clineacable(cramaee():s_ncctt2174->s_ncctt2192) Units=mi Length=0.105053330857 bus1=s_ncctt2192.2 bus2=s_ncctt2174.2 switch=n phases=1 Linecode=1P_Code0

New Line.switch(cramaee():s_ncctt501->s_ncctt504)_s_1349 Units=mi Length=0.000621371 bus1=s_ncctt504.1.2.3 bus2=s_ncctt501->s_ncctt504_s_s.1.2.3 switch=y phases=3 Linecode=3P_Code6

New Line.clineacable(cramaee():rclv138->s_dummy6084) Units=mi Length=0.0325247950756 bus1=s_dummy6084.1.2 bus2=rclv138.1.2 switch=n phases=2 Linecode=2P_Code3

New Line.clineacable(cramaee():s_dummy3118->s_dummy3121) Units=mi Length=0.0106140108736 bus1=s_dummy3118.1.2 bus2=s_dummy3121.1.2 switch=n phases=2 Linecode=2P_Code3

New Line.clineacable(cramaee():rclv4534->s_dummy630) Units=mi Length=0.0218211203667 bus1=s_dummy630.1.2 bus2=rclv4534.1.2 switch=n phases=2 Linecode=2P_Code3

New Line.switch(cramaee():s_ncctt1605->s_ncctt1620)_s_1141 Units=mi Length=0.000621371 bus1=s_ncctt1605->s_ncctt1620_s.1.2.3 bus2=s_ncctt1605.1.2.3 switch=y phases=3 Linecode=3P_Code6

New Line.clineacable(cramaee():rclv942->s_ncctt578_bt) Units=mi Length=0.0329322901774 bus1=s_ncctt578_bt.1.2 bus2=rclv942.1.2 switch=n phases=2 Linecode=2P_Code3

New Line.clineacable(cramaee():rclv3862->s_ncctt67_bt) Units=mi Length=0.0515748493307 bus1=s_ncctt67_bt.1.2 bus2=rclv3862.1.2 switch=n phases=2 Linecode=2P_Code3

New Line.clineacable(cramaee():s_ncctt2213->s_ncctt2249) Units=mi Length=0.198653551442 bus1=s_ncctt2213->s_ncctt2249_s_s.1.2.3 bus2=s_ncctt2213->s_ncctt2249_s.1.2.3 switch=n phases=3 Linecode=3P_Code8

New Line.clineacable(cramaee():s_ncctt512->s_ncctt534) Units=mi Length=0.071996393657 bus1=s_ncctt512->s_ncctt534_s_s.1.2.3 bus2=s_ncctt512->s_ncctt534_s.1.2.3 switch=n phases=3 Linecode=3P_Code8

New Line.switch(cramaee():s_ncctt1605->s_ncctt1620)_s_1140 Units=mi Length=0.000621371 bus1=s_ncctt1620.1.2.3 bus2=s_ncctt1605->s_ncctt1620_s_s.1.2.3 switch=y phases=3 Linecode=3P_Code6

New Line.clineacable(cramaee():s_dummy2079->s_dummy2080) Units=mi Length=0.000621371 bus1=s_dummy2079.1.2 bus2=s_dummy2080.1.2 switch=n phases=2 Linecode=2P_Code3

New Line.clineacable(cramaee():s_dummy1624->s_dummy1629) Units=mi Length=0.000621371 bus1=s_dummy1629.1.2 bus2=s_dummy1624.1.2 switch=n phases=2 Linecode=2P_Code3

New Line.clineacable(cramaee():s_ncctt1137->s_ncctt1145) Units=mi Length=0.144364988543 bus1=s_ncctt1145.1 bus2=s_ncctt1137.1 switch=n phases=1 Linecode=1P_Code0

New Line.clineacable(cramaee():rclv583->s_dummy5845) Units=mi Length=0.0571758875247 bus1=s_dummy5845.1.2 bus2=rclv583.1.2 switch=n phases=2 Linecode=2P_Code3

New Line.switch(cramaee():s_ncctt2231->s_ncctt2241)_s_1393 Units=mi Length=0.000621371 bus1=s_ncctt2231->s_ncctt2241_s_s.1.2.3 bus2=s_ncctt2241.1.2.3 switch=y phases=3 Linecode=3P_Code6

New Line.clineacable(cramaee():rclv5417->s_dummy3481) Units=mi Length=0.0401085038564 bus1=s_dummy3481.1.2 bus2=rclv5417.1.2 switch=n phases=2 Linecode=2P_Code3

New Line.clineacable(cramaee():rclv1791->s_ncctt2280_bt) Units=mi Length=0.000621371 bus1=s_ncctt2280_bt.1.2 bus2=rclv1791.1.2 switch=n phases=2 Linecode=2P_Code3

New Line.clineacable(cramaee():s_dummy2928->s_ncctt1288_bt) Units=mi Length=0.000621371 bus1=s_ncctt1288_bt.1.2 bus2=s_dummy2928.1.2 switch=n phases=2 Linecode=2P_Code2

New Line.clineacable(cramaee():rclv1751->s_ncctt2252_bt) Units=mi Length=0.0234825421465 bus1=s_ncctt2252_bt.1.2 bus2=rclv1751.1.2 switch=n phases=2 Linecode=2P_Code3

New Line.fuse(cramaee():s_ncctt2013->s_ncctt2035)_s_2307 Units=mi Length=0.000621371 bus1=s_ncctt2035.2 bus2=s_ncctt2013->s_ncctt2035_s.2 switch=y phases=3 Linecode=1P_Code4

New Line.clineacable(cramaee():rclv5490->s_dummy3534) Units=mi Length=0.022330830998 bus1=s_dummy3534.1.2 bus2=rclv5490.1.2 switch=n phases=2 Linecode=2P_Code1

New Line.clineacable(cramaee():s_ncctt1659->s_ncctt1680) Units=mi Length=0.072176591247 bus1=s_ncctt1659->s_ncctt1680_s.1.2.3 bus2=s_ncctt1659->s_ncctt1680_s_s.1.2.3 switch=n phases=3 Linecode=3P_Code8

New Line.clineacable(cramaee():s_dummy4844->s_ncctt2134_bt) Units=mi Length=0.000621371 bus1=s_ncctt2134_bt.1.2 bus2=s_dummy4844.1.2 switch=n phases=2 Linecode=2P_Code2

New Line.clineacable(cramaee():s_dummy5551->s_ncctt2418_bt) Units=mi Length=0.010599967889 bus1=s_ncctt2418_bt.1.2 bus2=s_dummy5551.1.2 switch=n phases=2 Linecode=2P_Code3

New Line.clineacable(cramaee():s_dummy31->s_dummy32) Units=mi Length=0.088884014695 bus1=s_dummy31.1.2 bus2=s_dummy32.1.2 switch=n phases=2 Linecode=2P_Code3

New Line.clineacable(cramaee():rclv2865->s_ncctt1438_bt) Units=mi Length=0.0469422799773 bus1=s_ncctt1438_bt.1.2 bus2=rclv2865.1.2 switch=n phases=2 Linecode=2P_Code3

New Line.clineacable(cramaee():rclv3529->s_ncctt1726_bt) Units=mi Length=0.0251674517501 bus1=s_ncctt1726_bt.1.2 bus2=rclv3529.1.2 switch=n phases=2 Linecode=2P_Code3

New Line.clineacable(cramaee():rclv4454->s_ncctt275_bt) Units=mi Length=0.0114332885371 bus1=s_ncctt275_bt.1.2 bus2=rclv4454.1.2 switch=n phases=2 Linecode=2P_Code3

New Line.clineacable(cramaee():rclv6024->s_dummy3200) Units=mi Length=0.0213130874371 bus1=s_dummy3200.1.2 bus2=rclv6024.1.2 switch=n phases=2 Linecode=2P_Code3

New Line.clineacable(cramaee():rclv5078->s_ncctt2428_bt) Units=mi Length=0.0421894131983 bus1=s_ncctt2428_bt.1.2 bus2=rclv5078.1.2 switch=n phases=2 Linecode=2P_Code3

New Line.clineacable(cramaee():rclv6266->s_ncctt447_bt) Units=mi Length=0.0252652555455 bus1=s_ncctt447_bt.1.2 bus2=rclv6266.1.2 switch=n phases=2 Linecode=2P_Code3

New Line.clineacable(cramaee():s_dummy5905->s_dummy5908) Units=mi Length=0.0193348285844 bus1=s_dummy5908.1.2 bus2=s_dummy5905.1.2 switch=n phases=2 Linecode=2P_Code3

New Line.clineacable(cramaee():rclv4818->s_ncctt2380_bt) Units=mi Length=0.0267380912268 bus1=s_ncctt2380_bt.1.2 bus2=rclv4818.1.2 switch=n phases=2 Linecode=2P_Code3

New Line.clineacable(cramaee():s_dummy1301->s_dummy1303) Units=mi Length=0.000621371 bus1=s_dummy1301.1.2 bus2=s_dummy1303.1.2 switch=n phases=2 Linecode=2P_Code3

New Line.clineacable(cramaee():s_dummy1714->s_ncctt801_bt) Units=mi Length=0.000621371 bus1=s_ncctt801_bt.1.2 bus2=s_dummy1714.1.2 switch=n phases=2 Linecode=2P_Code2

New Line.clineacable(cramaee():s_dummy3441->s_ncctt1571_bt) Units=mi Length=0.000621371 bus1=s_ncctt1571_bt.1.2 bus2=s_dummy3441.1.2 switch=n phases=2 Linecode=2P_Code2

New Line.clineacable(cramaee():s_dummy496->s_ncctt370_bt) Units=mi Length=0.000621371 bus1=s_ncctt370_bt.1.2 bus2=s_dummy496.1.2 switch=n phases=2 Linecode=2P_Code3

New Line.clineacable(cramaee():s_dummy262->s_ncctt70_bt) Units=mi Length=0.0094595656927 bus1=s_ncctt70_bt.1.2 bus2=s_dummy262.1.2 switch=n phases=2 Linecode=2P_Code3

New Line.clineacable(cramaee():s_dummy1848->s_dummy1850) Units=mi Length=0.065325975972 bus1=s_dummy1848.1.2 bus2=s_dummy1850.1.2 switch=n phases=2 Linecode=2P_Code3

New Line.clineacable(cramaee():s_ncctt570->s_ncctt593) Units=mi Length=0.145488427311 bus1=s_ncctt570.1.2.3 bus2=s_ncctt593.1.2.3 switch=n phases=3 Linecode=3P_Code5

New Line.clineacable(cramaee():s_ncctt1278->s_ncctt1279) Units=mi Length=0.0455815396244 bus1=s_ncctt1278->s_ncctt1279_s_s.2 bus2=s_ncctt1278->s_ncctt1279_s.2 switch=n phases=1 Linecode=1P_Code7

New Line.clineacable(cramaee():s_dummy4460->s_dummy4462) Units=mi Length=0.0191922239399 bus1=s_dummy4460.1.2 bus2=s_dummy4462.1.2 switch=n phases=2 Linecode=2P_Code3

New Line.switch(cramaee():s_ncctt1424->s_ncctt1432)_s_958 Units=mi Length=0.000621371 bus1=s_ncctt1424->s_ncctt1432_s.1.2.3 bus2=s_ncctt1424.1.2.3 switch=y phases=3 Linecode=3P_Code6

New Line.clineacable(cramaee():rclv6186->s_ncctt390_bt) Units=mi Length=0.0249647605299 bus1=s_ncctt390_bt.1.2 bus2=rclv6186.1.2 switch=n phases=2 Linecode=2P_Code3

New Line.clineacable(cramaee():rclv3608->s_dummy919) Units=mi Length=0.027167582862 bus1=s_dummy919.1.2 bus2=rclv3608.1.2 switch=n phases=2 Linecode=2P_Code3

New Line.clineacable(cramaee():rclv2809->s_ncctt1411_bt) Units=mi Length=0.00133449985557 bus1=s_ncctt1411_bt.1.2 bus2=rclv2809.1.2 switch=n phases=2 Linecode=2P_Code1

New Line.clineacable(cramaee():s_ncctt253->s_ncctt272) Units=mi Length=0.07253885054 bus1=s_ncctt253.1.2.3 bus2=s_ncctt272.1.2.3 switch=n phases=3 Linecode=3P_Code5

New Line.breaker(cramaee():s_nssee2_69->s_nst0_69)_s_1786 Units=mi Length=0.000621371 bus1=s_nst0_69.1.2.3 bus2=s_nssee2_69->s_nst0_69_s_s.1.2.3 switch=y phases=3 Linecode=3P_Code6

New Line.breaker(cramaee():s_nssee2_69->s_nst0_69)_s_1787 Units=mi Length=0.000621371 bus1=s_nssee2_69->s_nst0_69_s.1.2.3 bus2=s_nssee2_69.1.2.3 switch=y phases=3 Linecode=3P_Code6

New Line.clineacable(cramaee():s_dummy52->s_dummy53) Units=mi Length=0.0322668639735 bus1=s_dummy52.1.2 bus2=s_dummy53.1.2 switch=n phases=2 Linecode=2P_Code3

New Line.clineacable(cramaee():rclv948->s_dummy1252) Units=mi Length=0.0356980746355 bus1=s_dummy1252.1.2 bus2=rclv948.1.2 switch=n phases=2 Linecode=2P_Code3

New Line.clineacable(cramaee():rclv6346->s_ncctt492_bt) Units=mi Length=0.0494736832942 bus1=s_ncctt492_bt.1.2 bus2=rclv6346.1.2 switch=n phases=2 Linecode=2P_Code3

New Line.clineacable(cramaee():rclv2823->s_ncctt1422_bt) Units=mi Length=0.0124578050419 bus1=s_ncctt1422_bt.1.2 bus2=rclv2823.1.2 switch=n phases=2 Linecode=2P_Code3

New Line.fuse(cramaee():s_ncctt1290->s_ncctt1318)_s_2181 Units=mi Length=0.000621371 bus1=s_ncctt1318.2 bus2=s_ncctt1290->s_ncctt1318_s.2 switch=y phases=3 Linecode=1P_Code4

New Line.clineacable(cramaee():rclv5405->s_dummy3451) Units=mi Length=0.064214964624 bus1=s_dummy3451.1.2 bus2=rclv5405.1.2 switch=n phases=2 Linecode=2P_Code3

New Line.clineacable(cramaee():s_dummy2879->s_ncctt1136_bt) Units=mi Length=0.0114095521649 bus1=s_ncctt1136_bt.1.2 bus2=s_dummy2879.1.2 switch=n phases=2 Linecode=2P_Code3

New Line.clineacable(cramaee():s_dummy1756->s_ncctt635_bt) Units=mi Length=0.000621371 bus1=s_ncctt635_bt.1.2 bus2=s_dummy1756.1.2 switch=n phases=2 Linecode=2P_Code3

New Line.clineacable(cramaee():s_dummy1482->s_dummy1483) Units=mi Length=0.0094695697658 bus1=s_dummy1482.1.2 bus2=s_dummy1483.1.2 switch=n phases=2 Linecode=2P_Code1

New Line.clineacable(cramaee():s_ncctt236->s_ncctt240) Units=mi Length=0.064680992874 bus1=s_ncctt240.1.2.3 bus2=s_ncctt236.1.2.3 switch=n phases=3 Linecode=3P_Code5

New Line.clineacable(cramaee():rclv437->s_ncctt1018_bt) Units=mi Length=0.0346866690588 bus1=s_ncctt1018_bt.1.2 bus2=rclv437.1.2 switch=n phases=2 Linecode=2P_Code3

New Line.clineacable(cramaee():s_ncctt1520->s_ncctt1764) Units=mi Length=0.0577506556997 bus1=s_ncctt1520->s_ncctt1764_s.3 bus2=s_ncctt1520->s_ncctt1764_s_s.3 switch=n phases=1 Linecode=1P_Code7

New Line.clineacable(cramaee():rclv1877->s_dummy5399) Units=mi Length=0.0160564130513 bus1=s_dummy5399.1.2 bus2=rclv1877.1.2 switch=n phases=2 Linecode=2P_Code3

New Line.switch(cramaee():s_ncctt1637->s_ncctt1645)_s_1110 Units=mi Length=0.000621371 bus1=s_ncctt1637.2 bus2=s_ncctt1637->s_ncctt1645_s.2 switch=y phases=3 Linecode=1P_Code4

New Line.clineacable(cramaee():rclv5728->s_dummy3309) Units=mi Length=0.0164720481132 bus1=s_dummy3309.1.2 bus2=rclv5728.1.2 switch=n phases=2 Linecode=2P_Code3

New Line.clineacable(cramaee():s_dummy5663->s_ncctt2485_bt) Units=mi Length=0.000621371 bus1=s_ncctt2485_bt.1.2 bus2=s_dummy5663.1.2 switch=n phases=2 Linecode=2P_Code3

New Line.clineacable(cramaee():s_dummy2883->s_ncctt1137_bt) Units=mi Length=0.000621371 bus1=s_ncctt1137_bt.1.2 bus2=s_dummy2883.1.2 switch=n phases=2 Linecode=2P_Code2

New Line.clineacable(cramaee():s_ncctt128->s_ncctt137) Units=mi Length=0.076102413225 bus1=s_ncctt137.1.2.3 bus2=s_ncctt128.1.2.3 switch=n phases=3 Linecode=3P_Code5

New Line.clineacable(cramaee():s_ncctt2498->s_ncctt2499) Units=mi Length=0.0302510121753 bus1=s_ncctt2499.2 bus2=s_ncctt2498.2 switch=n phases=1 Linecode=1P_Code0

New Line.clineacable(cramaee():s_dummy4568->s_ncctt1967_bt) Units=mi Length=0.000621371 bus1=s_ncctt1967_bt.1.2 bus2=s_dummy4568.1.2 switch=n phases=2 Linecode=2P_Code3

New Line.clineacable(cramaee():s_dummy4251->s_dummy4253) Units=mi Length=0.009517539607 bus1=s_dummy4251.1.2 bus2=s_dummy4253.1.2 switch=n phases=2 Linecode=2P_Code3

New Line.clineacable(cramaee():rclv2316->s_dummy2188) Units=mi Length=0.0387145822921 bus1=s_dummy2188.1.2 bus2=rclv2316.1.2 switch=n phases=2 Linecode=2P_Code1

New Line.clineacable(cramaee():s_dummy2235->s_ncctt871_bt) Units=mi Length=0.0100063721727 bus1=s_ncctt871_bt.1.2 bus2=s_dummy2235.1.2 switch=n phases=2 Linecode=2P_Code3

New Line.clineacable(cramaee():s_dummy1964->s_dummy1967) Units=mi Length=0.064845034818 bus1=s_dummy1964.1.2 bus2=s_dummy1967.1.2 switch=n phases=2 Linecode=2P_Code2

New Line.switch(cramaee():s_ncctt1591->s_ncctt1598)_s_1068 Units=mi Length=0.000621371 bus1=s_ncctt1598.3 bus2=s_ncctt1591->s_ncctt1598_s_s.3 switch=y phases=3 Linecode=1P_Code4

New Line.clineacable(cramaee():s_dummy2898->s_dummy2899) Units=mi Length=0.0146117254763 bus1=s_dummy2899.1.2 bus2=s_dummy2898.1.2 switch=n phases=2 Linecode=2P_Code3

New Line.clineacable(cramaee():s_dummy1174->s_ncctt527_bt) Units=mi Length=0.000621371 bus1=s_ncctt527_bt.1.2 bus2=s_dummy1174.1.2 switch=n phases=2 Linecode=2P_Code3

New Line.clineacable(cramaee():s_dummy4556->s_dummy4557) Units=mi Length=0.000621371 bus1=s_dummy4557.1.2 bus2=s_dummy4556.1.2 switch=n phases=2 Linecode=2P_Code2

New Line.clineacable(cramaee():s_dummy3527->s_ncctt1584_bt) Units=mi Length=0.0279643668953 bus1=s_ncctt1584_bt.1.2 bus2=s_dummy3527.1.2 switch=n phases=2 Linecode=2P_Code3

New Line.clineacable(cramaee():rclv5302->s_dummy4210) Units=mi Length=0.0198091832058 bus1=s_dummy4210.1.2 bus2=rclv5302.1.2 switch=n phases=2 Linecode=2P_Code3

New Line.clineacable(cramaee():s_ncctt397->s_ncctt418) Units=mi Length=0.187964106129 bus1=s_ncctt418.3 bus2=s_ncctt397.3 switch=n phases=1 Linecode=1P_Code0

New Line.clineacable(cramaee():s_dummy2899->s_dummy2901) Units=mi Length=0.0106299801083 bus1=s_dummy2901.1.2 bus2=s_dummy2899.1.2 switch=n phases=2 Linecode=2P_Code3

New Line.clineacable(cramaee():s_dummy3872->s_ncctt1682_bt) Units=mi Length=0.000621371 bus1=s_ncctt1682_bt.1.2 bus2=s_dummy3872.1.2 switch=n phases=2 Linecode=2P_Code2

New Line.clineacable(cramaee():s_ncctt1820->s_ncctt45) Units=mi Length=0.093447363319 bus1=s_ncctt1820.1.2.3 bus2=s_ncctt45.1.2.3 switch=n phases=3 Linecode=3P_Code5

New Line.clineacable(cramaee():rclv6157->s_ncctt407_bt) Units=mi Length=0.000621371 bus1=s_ncctt407_bt.1.2 bus2=rclv6157.1.2 switch=n phases=2 Linecode=2P_Code3

New Line.clineacable(cramaee():s_dummy4889->s_ncctt2165_bt) Units=mi Length=0.000621371 bus1=s_ncctt2165_bt.1.2 bus2=s_dummy4889.1.2 switch=n phases=2 Linecode=2P_Code2

New Line.clineacable(cramaee():rclv3872->s_dummy9) Units=mi Length=0.0151768624008 bus1=s_dummy9.1.2 bus2=rclv3872.1.2 switch=n phases=2 Linecode=2P_Code3

New Line.clineacable(cramaee():s_ncctt1191->s_ncctt1205) Units=mi Length=0.07554007247 bus1=s_ncctt1205.3 bus2=s_ncctt1191.3 switch=n phases=1 Linecode=1P_Code0

New Line.clineacable(cramaee():s_ncctt2475->s_ncctt2480) Units=mi Length=0.0093753077851 bus1=s_ncctt2475.2 bus2=s_ncctt2480.2 switch=n phases=1 Linecode=1P_Code0

New Line.clineacable(cramaee():s_dummy4383->s_dummy4385) Units=mi Length=0.0327981983156 bus1=s_dummy4383.1.2 bus2=s_dummy4385.1.2 switch=n phases=2 Linecode=2P_Code3

New Line.clineacable(cramaee():s_dummy1814->s_dummy1820) Units=mi Length=0.0100824901202 bus1=s_dummy1814.1.2 bus2=s_dummy1820.1.2 switch=n phases=2 Linecode=2P_Code3

New Line.clineacable(cramaee():s_ncctt2642->s_ncctt2646) Units=mi Length=0.0338256352641 bus1=s_ncctt2642.1.2.3 bus2=s_ncctt2646.1.2.3 switch=n phases=3 Linecode=3P_Code5

New Line.clineacable(cramaee():rclv1983->s_ncctt2369_bt) Units=mi Length=0.0079158315803 bus1=s_ncctt2369_bt.1.2 bus2=rclv1983.1.2 switch=n phases=2 Linecode=2P_Code3

New Line.clineacable(cramaee():rclv2839->s_ncctt1430_bt) Units=mi Length=0.000621371 bus1=s_ncctt1430_bt.1.2 bus2=rclv2839.1.2 switch=n phases=2 Linecode=2P_Code1

New Line.clineacable(cramaee():rclv2464->s_dummy2658) Units=mi Length=0.02894346118 bus1=s_dummy2658.1.2 bus2=rclv2464.1.2 switch=n phases=2 Linecode=2P_Code1

New Line.clineacable(cramaee():s_ncctt252->s_ncctt254) Units=mi Length=0.0362108299847 bus1=s_ncctt252.1 bus2=s_ncctt254.1 switch=n phases=1 Linecode=1P_Code0

New Line.clineacable(cramaee():rclv1728->s_ncctt2135_bt) Units=mi Length=0.000621371 bus1=s_ncctt2135_bt.1.2 bus2=rclv1728.1.2 switch=n phases=2 Linecode=2P_Code3

New Line.clineacable(cramaee():rclv5801->s_dummy3255) Units=mi Length=0.0143125974769 bus1=s_dummy3255.1.2 bus2=rclv5801.1.2 switch=n phases=2 Linecode=2P_Code3

New Line.clineacable(cramaee():rclv4359->s_dummy1770) Units=mi Length=0.0140738667387 bus1=s_dummy1770.1.2 bus2=rclv4359.1.2 switch=n phases=2 Linecode=2P_Code3

New Line.clineacable(cramaee():s_dummy1050->s_dummy1053) Units=mi Length=0.0118174822264 bus1=s_dummy1050.1.2 bus2=s_dummy1053.1.2 switch=n phases=2 Linecode=2P_Code3

New Line.clineacable(cramaee():s_dummy2395->s_ncctt956_bt) Units=mi Length=0.000621371 bus1=s_ncctt956_bt.1.2 bus2=s_dummy2395.1.2 switch=n phases=2 Linecode=2P_Code9

New Line.clineacable(cramaee():rclv4510->s_ncctt308_bt) Units=mi Length=0.000621371 bus1=s_ncctt308_bt.1.2 bus2=rclv4510.1.2 switch=n phases=2 Linecode=2P_Code3

New Line.clineacable(cramaee():s_dummy1916->s_ncctt696_bt) Units=mi Length=0.000621371 bus1=s_ncctt696_bt.1.2 bus2=s_dummy1916.1.2 switch=n phases=2 Linecode=2P_Code2

New Line.clineacable(cramaee():rclv1480->s_ncctt2183_bt) Units=mi Length=0.058600877639 bus1=s_ncctt2183_bt.1.2 bus2=rclv1480.1.2 switch=n phases=2 Linecode=2P_Code3

New Line.clineacable(cramaee():rclv2020->s_dummy4992) Units=mi Length=0.0193397374153 bus1=s_dummy4992.1.2 bus2=rclv2020.1.2 switch=n phases=2 Linecode=2P_Code3

New Line.clineacable(cramaee():rclv5401->s_ncctt1565_bt) Units=mi Length=0.0299566065955 bus1=s_ncctt1565_bt.1.2 bus2=rclv5401.1.2 switch=n phases=2 Linecode=2P_Code3

New Line.clineacable(cramaee():rclv193->s_dummy1720) Units=mi Length=0.0180656783169 bus1=s_dummy1720.1.2 bus2=rclv193.1.2 switch=n phases=2 Linecode=2P_Code3

New Line.clineacable(cramaee():s_dummy2988->s_ncctt1325_bt) Units=mi Length=0.000621371 bus1=s_ncctt1325_bt.1.2 bus2=s_dummy2988.1.2 switch=n phases=2 Linecode=2P_Code3

New Line.fuse(cramaee():s_ncctt2675->s_ncctt2683)_s_2419 Units=mi Length=0.000621371 bus1=s_ncctt2675.1 bus2=s_ncctt2675->s_ncctt2683_s.1 switch=y phases=3 Linecode=1P_Code4

New Line.switch(cramaee():s_ncctt1626->s_ncctt1638)_s_1105 Units=mi Length=0.000621371 bus1=s_ncctt1626->s_ncctt1638_s_s.2 bus2=s_ncctt1638.2 switch=y phases=3 Linecode=1P_Code4

New Line.clineacable(cramaee():s_ncctt1470->s_ncctt1473) Units=mi Length=0.258629523104 bus1=s_ncctt1473.1 bus2=s_ncctt1470.1 switch=n phases=1 Linecode=1P_Code0

New Line.clineacable(cramaee():s_ncctt572->s_ncctt585) Units=mi Length=0.106940434584 bus1=s_ncctt572.1.2.3 bus2=s_ncctt585.1.2.3 switch=n phases=3 Linecode=3P_Code5

New Line.clineacable(cramaee():rclv6158->s_dummy363) Units=mi Length=0.0380320062486 bus1=s_dummy363.1.2 bus2=rclv6158.1.2 switch=n phases=2 Linecode=2P_Code3

New Line.clineacable(cramaee():rclv4131->s_dummy958) Units=mi Length=0.0300042657512 bus1=s_dummy958.1.2 bus2=rclv4131.1.2 switch=n phases=2 Linecode=2P_Code3

New Line.clineacable(cramaee():rclv1785->s_dummy5282) Units=mi Length=0.0228742820746 bus1=s_dummy5282.1.2 bus2=rclv1785.1.2 switch=n phases=2 Linecode=2P_Code3

New Line.clineacable(cramaee():s_dummy4816->s_dummy4817) Units=mi Length=0.0105640526452 bus1=s_dummy4817.1.2 bus2=s_dummy4816.1.2 switch=n phases=2 Linecode=2P_Code3

New Line.clineacable(cramaee():rclv3381->s_dummy3693) Units=mi Length=0.065196730804 bus1=s_dummy3693.1.2 bus2=rclv3381.1.2 switch=n phases=2 Linecode=2P_Code1

New Line.clineacable(cramaee():s_dummy1688->s_dummy1691) Units=mi Length=0.01418589993 bus1=s_dummy1691.1.2 bus2=s_dummy1688.1.2 switch=n phases=2 Linecode=2P_Code3

New Line.clineacable(cramaee():rclv5389->s_dummy3469) Units=mi Length=0.0227540467861 bus1=s_dummy3469.1.2 bus2=rclv5389.1.2 switch=n phases=2 Linecode=2P_Code3

New Line.clineacable(cramaee():rclv3509->s_ncctt1722_bt) Units=mi Length=0.000621371 bus1=s_ncctt1722_bt.1.2 bus2=rclv3509.1.2 switch=n phases=2 Linecode=2P_Code3

New Line.clineacable(cramaee():s_dummy4965->s_ncctt2338_bt) Units=mi Length=0.000621371 bus1=s_ncctt2338_bt.1.2 bus2=s_dummy4965.1.2 switch=n phases=2 Linecode=2P_Code2

New Line.clineacable(cramaee():rclv81->s_dummy62) Units=mi Length=0.0171797275451 bus1=s_dummy62.1.2 bus2=rclv81.1.2 switch=n phases=2 Linecode=2P_Code3

New Line.clineacable(cramaee():rclv2081->s_ncctt927_bt) Units=mi Length=0.0204567139249 bus1=s_ncctt927_bt.1.2 bus2=rclv2081.1.2 switch=n phases=2 Linecode=2P_Code3

New Line.clineacable(cramaee():s_ncctt326->s_ncctt341) Units=mi Length=0.104671187692 bus1=s_ncctt341.2 bus2=s_ncctt326.2 switch=n phases=1 Linecode=1P_Code0

New Line.clineacable(cramaee():s_ncctt1087->s_ncctt2210) Units=mi Length=0.146860414479 bus1=s_ncctt2210.1.2.3 bus2=s_ncctt1087.1.2.3 switch=n phases=3 Linecode=3P_Code5

New Line.clineacable(cramaee():s_dummy4257->s_ncctt1808_bt) Units=mi Length=0.000621371 bus1=s_ncctt1808_bt.1.2 bus2=s_dummy4257.1.2 switch=n phases=2 Linecode=2P_Code2

New Line.clineacable(cramaee():rclv1508->s_ncctt2220_bt) Units=mi Length=0.0613812021785 bus1=s_ncctt2220_bt.1.2 bus2=rclv1508.1.2 switch=n phases=2 Linecode=2P_Code3

New Line.clineacable(cramaee():rclv4394->s_ncctt679_bt) Units=mi Length=0.0323546015587 bus1=s_ncctt679_bt.1.2 bus2=rclv4394.1.2 switch=n phases=2 Linecode=2P_Code3

New Line.clineacable(cramaee():s_ncctt2002->s_ncctt2005) Units=mi Length=0.115336399536 bus1=s_ncctt2005.1.2.3 bus2=s_ncctt2002.1.2.3 switch=n phases=3 Linecode=3P_Code5

New Line.clineacable(cramaee():s_ncctt2084->s_ncctt2110) Units=mi Length=0.0102292579504 bus1=s_ncctt2084.3 bus2=s_ncctt2110.3 switch=n phases=1 Linecode=1P_Code0

New Line.clineacable(cramaee():rclv5930->s_dummy538) Units=mi Length=0.0133218214174 bus1=s_dummy538.1.2 bus2=rclv5930.1.2 switch=n phases=2 Linecode=2P_Code3

New Line.clineacable(cramaee():rclv1766->s_dummy5248) Units=mi Length=0.0284207638948 bus1=s_dummy5248.1.2 bus2=rclv1766.1.2 switch=n phases=2 Linecode=2P_Code3

New Line.clineacable(cramaee():rclv5770->s_dummy3244) Units=mi Length=0.0197892993338 bus1=s_dummy3244.1.2 bus2=rclv5770.1.2 switch=n phases=2 Linecode=2P_Code3

New Line.clineacable(cramaee():s_dummy3610->s_ncctt1413_bt) Units=mi Length=0.000621371 bus1=s_ncctt1413_bt.1.2 bus2=s_dummy3610.1.2 switch=n phases=2 Linecode=2P_Code2

New Line.clineacable(cramaee():rclv1331->s_dummy4706) Units=mi Length=0.0213013435252 bus1=s_dummy4706.1.2 bus2=rclv1331.1.2 switch=n phases=2 Linecode=2P_Code3

New Line.clineacable(cramaee():rclv1950->s_dummy4982) Units=mi Length=0.0193689418523 bus1=s_dummy4982.1.2 bus2=rclv1950.1.2 switch=n phases=2 Linecode=2P_Code3

New Line.switch(cramaee():s_ncctt175->s_ncctt1762)_s_1932 Units=mi Length=0.000621371 bus1=s_ncctt175->s_ncctt1762_s_s.1.2.3 bus2=s_ncctt1762.1.2.3 switch=y phases=3 Linecode=3P_Code6

New Line.clineacable(cramaee():s_dummy1798->s_dummy1799) Units=mi Length=0.0121745841401 bus1=s_dummy1798.1.2 bus2=s_dummy1799.1.2 switch=n phases=2 Linecode=2P_Code3

New Line.switch(cramaee():s_ncctt2568->s_ncctt2571)_s_1265 Units=mi Length=0.000621371 bus1=s_ncctt2568.1.2.3 bus2=s_ncctt2568->s_ncctt2571_s.1.2.3 switch=y phases=3 Linecode=3P_Code6

New Line.clineacable(cramaee():s_ncctt138->s_ncctt148) Units=mi Length=0.170803703222 bus1=s_ncctt138.1 bus2=s_ncctt148.1 switch=n phases=1 Linecode=1P_Code0

New Line.clineacable(cramaee():rclv1619->s_ncctt1998_bt) Units=mi Length=0.020211955888 bus1=s_ncctt1998_bt.1.2 bus2=rclv1619.1.2 switch=n phases=2 Linecode=2P_Code3

New Line.clineacable(cramaee():rclv6204->s_dummy392) Units=mi Length=0.0245107247402 bus1=s_dummy392.1.2 bus2=rclv6204.1.2 switch=n phases=2 Linecode=2P_Code3

New Line.clineacable(cramaee():rclv2524->s_dummy2720) Units=mi Length=0.0380503366931 bus1=s_dummy2720.1.2 bus2=rclv2524.1.2 switch=n phases=2 Linecode=2P_Code1

New Line.clineacable(cramaee():rclv539->s_dummy5903) Units=mi Length=0.0310380406839 bus1=s_dummy5903.1.2 bus2=rclv539.1.2 switch=n phases=2 Linecode=2P_Code9

New Line.clineacable(cramaee():rclv2177->s_dummy2403) Units=mi Length=0.0112019521138 bus1=s_dummy2403.1.2 bus2=rclv2177.1.2 switch=n phases=2 Linecode=2P_Code2

New Line.clineacable(cramaee():s_dummy5310->s_ncctt2272_bt) Units=mi Length=0.000621371 bus1=s_ncctt2272_bt.1.2 bus2=s_dummy5310.1.2 switch=n phases=2 Linecode=2P_Code2

New Line.clineacable(cramaee():rclv3581->s_dummy3884) Units=mi Length=0.0585335831597 bus1=s_dummy3884.1.2 bus2=rclv3581.1.2 switch=n phases=2 Linecode=2P_Code3

New Line.clineacable(cramaee():rclv795->s_dummy1248) Units=mi Length=0.0257455131914 bus1=s_dummy1248.1.2 bus2=rclv795.1.2 switch=n phases=2 Linecode=2P_Code1

New Line.clineacable(cramaee():s_dummy3820->s_ncctt1541_bt) Units=mi Length=0.000621371 bus1=s_ncctt1541_bt.1.2 bus2=s_dummy3820.1.2 switch=n phases=2 Linecode=2P_Code2

New Line.recloser(cramaee():s_ncctt2016->s_ncctt2035)_s_2421 Units=mi Length=0.000621371 bus1=s_ncctt2035.1.2.3 bus2=s_ncctt2016->s_ncctt2035_s.1.2.3 switch=y phases=3 Linecode=3P_Code6

New Line.clineacable(cramaee():s_dummy3550->s_ncctt1587_bt) Units=mi Length=0.000621371 bus1=s_ncctt1587_bt.1.2 bus2=s_dummy3550.1.2 switch=n phases=2 Linecode=2P_Code1

New Line.clineacable(cramaee():s_dummy5479->s_dummy5480) Units=mi Length=0.0296203206103 bus1=s_dummy5480.1.2 bus2=s_dummy5479.1.2 switch=n phases=2 Linecode=2P_Code3

New Line.clineacable(cramaee():rclv4846->s_dummy5039) Units=mi Length=0.0157593355762 bus1=s_dummy5039.1.2 bus2=rclv4846.1.2 switch=n phases=2 Linecode=2P_Code3

New Line.clineacable(cramaee():rclv2272->s_ncctt980_bt) Units=mi Length=0.0569024842847 bus1=s_ncctt980_bt.1.2 bus2=rclv2272.1.2 switch=n phases=2 Linecode=2P_Code3

New Line.clineacable(cramaee():rclv2720->s_dummy2586) Units=mi Length=0.0173094076728 bus1=s_dummy2586.1.2 bus2=rclv2720.1.2 switch=n phases=2 Linecode=2P_Code3

New Line.clineacable(cramaee():s_dummy2458->s_ncctt957_bt) Units=mi Length=0.000621371 bus1=s_ncctt957_bt.1.2 bus2=s_dummy2458.1.2 switch=n phases=2 Linecode=2P_Code9

New Line.clineacable(cramaee():rclv2680->s_dummy2879) Units=mi Length=0.0216324721311 bus1=s_dummy2879.1.2 bus2=rclv2680.1.2 switch=n phases=2 Linecode=2P_Code3

New Line.clineacable(cramaee():s_dummy3784->s_dummy3790) Units=mi Length=0.0373335852446 bus1=s_dummy3790.1.2 bus2=s_dummy3784.1.2 switch=n phases=2 Linecode=2P_Code3

New Line.clineacable(cramaee():s_dummy4445->s_ncctt1913_bt) Units=mi Length=0.000621371 bus1=s_ncctt1913_bt.1.2 bus2=s_dummy4445.1.2 switch=n phases=2 Linecode=2P_Code2

New Line.clineacable(cramaee():s_dummy4223->s_ncctt1670_bt) Units=mi Length=0.000621371 bus1=s_ncctt1670_bt.1.2 bus2=s_dummy4223.1.2 switch=n phases=2 Linecode=2P_Code3

New Line.clineacable(cramaee():rclv3164->s_ncctt1810_bt) Units=mi Length=0.0595183940576 bus1=s_ncctt1810_bt.1.2 bus2=rclv3164.1.2 switch=n phases=2 Linecode=2P_Code3

New Line.switch(cramaee():s_ncctt2226->s_ncctt2227)_s_1608 Units=mi Length=0.000621371 bus1=s_ncctt2227.1 bus2=s_ncctt2226->s_ncctt2227_s_s.1 switch=y phases=3 Linecode=1P_Code4

New Line.clineacable(cramaee():rclv2695->s_dummy2266) Units=mi Length=0.0180271533149 bus1=s_dummy2266.1.2 bus2=rclv2695.1.2 switch=n phases=2 Linecode=2P_Code3

New Line.clineacable(cramaee():rclv4183->s_ncctt209_bt) Units=mi Length=0.032623841613 bus1=s_ncctt209_bt.1.2 bus2=rclv4183.1.2 switch=n phases=2 Linecode=2P_Code3

New Line.clineacable(cramaee():rclv3314->s_dummy3630) Units=mi Length=0.084472280595 bus1=s_dummy3630.1.2 bus2=rclv3314.1.2 switch=n phases=2 Linecode=2P_Code3

New Line.clineacable(cramaee():rclv2234->s_ncctt989_bt) Units=mi Length=0.0351986166257 bus1=s_ncctt989_bt.1.2 bus2=rclv2234.1.2 switch=n phases=2 Linecode=2P_Code3

New Line.clineacable(cramaee():rclv3645->s_dummy1154) Units=mi Length=0.0330046798989 bus1=s_dummy1154.1.2 bus2=rclv3645.1.2 switch=n phases=2 Linecode=2P_Code3

New Line.clineacable(cramaee():rclv3550->s_ncctt1750_bt) Units=mi Length=0.0095893079575 bus1=s_ncctt1750_bt.1.2 bus2=rclv3550.1.2 switch=n phases=2 Linecode=2P_Code3

New Line.clineacable(cramaee():s_dummy363->s_ncctt396_bt) Units=mi Length=0.0093544918566 bus1=s_ncctt396_bt.1.2 bus2=s_dummy363.1.2 switch=n phases=2 Linecode=2P_Code3

New Line.clineacable(cramaee():rclv1853->s_dummy5362) Units=mi Length=0.0399882064308 bus1=s_dummy5362.1.2 bus2=rclv1853.1.2 switch=n phases=2 Linecode=2P_Code3

New Line.clineacable(cramaee():rclv5975->s_dummy407) Units=mi Length=0.013263785366 bus1=s_dummy407.1.2 bus2=rclv5975.1.2 switch=n phases=2 Linecode=2P_Code3

New Line.clineacable(cramaee():rclv1169->s_dummy4512) Units=mi Length=0.0275883131661 bus1=s_dummy4512.1.2 bus2=rclv1169.1.2 switch=n phases=2 Linecode=2P_Code3

New Line.clineacable(cramaee():s_dummy433->s_dummy437) Units=mi Length=0.0094847933553 bus1=s_dummy437.1.2 bus2=s_dummy433.1.2 switch=n phases=2 Linecode=2P_Code3

New Line.clineacable(cramaee():rclv4653->s_dummy705) Units=mi Length=0.0154981733449 bus1=s_dummy705.1.2 bus2=rclv4653.1.2 switch=n phases=2 Linecode=2P_Code3

New Line.switch(cramaee():s_ncctt921->s_ncctt926)_s_1389 Units=mi Length=0.000621371 bus1=s_ncctt921->s_ncctt926_s_s.1 bus2=s_ncctt926.1 switch=y phases=3 Linecode=1P_Code4

New Line.switch(cramaee():s_ncctt921->s_ncctt926)_s_1388 Units=mi Length=0.000621371 bus1=s_ncctt921.1 bus2=s_ncctt921->s_ncctt926_s.1 switch=y phases=3 Linecode=1P_Code4

New Line.clineacable(cramaee():rclv5256->s_ncctt1668_bt) Units=mi Length=0.0409284028909 bus1=s_ncctt1668_bt.1.2 bus2=rclv5256.1.2 switch=n phases=2 Linecode=2P_Code3

New Line.clineacable(cramaee():rclv3499->s_ncctt1729_bt) Units=mi Length=0.000621371 bus1=s_ncctt1729_bt.1.2 bus2=rclv3499.1.2 switch=n phases=2 Linecode=2P_Code3

New Line.clineacable(cramaee():rclv1260->s_dummy4608) Units=mi Length=0.0518654024103 bus1=s_dummy4608.1.2 bus2=rclv1260.1.2 switch=n phases=2 Linecode=2P_Code3

New Line.clineacable(cramaee():s_dummy678->s_ncctt304_bt) Units=mi Length=0.000621371 bus1=s_ncctt304_bt.1.2 bus2=s_dummy678.1.2 switch=n phases=2 Linecode=2P_Code3

New Line.clineacable(cramaee():s_ncctt2285->s_ncctt2287) Units=mi Length=0.000621371 bus1=s_ncctt2287.3 bus2=s_ncctt2285.3 switch=n phases=1 Linecode=1P_Code0

New Line.switch(cramaee():s_ncctt1102->s_ncctt1103)_s_1517 Units=mi Length=0.000621371 bus1=s_ncctt1102->s_ncctt1103_s_s.1.2.3 bus2=s_ncctt1103.1.2.3 switch=y phases=3 Linecode=3P_Code6

New Line.clineacable(cramaee():s_dummy5867->s_dummy5869) Units=mi Length=0.0129783275286 bus1=s_dummy5869.1.2 bus2=s_dummy5867.1.2 switch=n phases=2 Linecode=2P_Code1

New Line.clineacable(cramaee():s_dummy2666->s_ncctt1028_bt) Units=mi Length=0.0094778961372 bus1=s_ncctt1028_bt.1.2 bus2=s_dummy2666.1.2 switch=n phases=2 Linecode=2P_Code1

New Line.clineacable(cramaee():s_ncctt1532->s_ncctt1677) Units=mi Length=0.160869845045 bus1=s_ncctt1532.1 bus2=s_ncctt1677.1 switch=n phases=1 Linecode=1P_Code0

New Line.clineacable(cramaee():rclv2744->s_ncctt1198_bt) Units=mi Length=0.0222913739395 bus1=s_ncctt1198_bt.1.2 bus2=rclv2744.1.2 switch=n phases=2 Linecode=2P_Code3

New Line.clineacable(cramaee():rclv4060->s_dummy282) Units=mi Length=0.0282725669113 bus1=s_dummy282.1.2 bus2=rclv4060.1.2 switch=n phases=2 Linecode=2P_Code3

New Line.clineacable(cramaee():rclv2025->s_ncctt883_bt) Units=mi Length=0.001327248456 bus1=s_ncctt883_bt.1.2 bus2=rclv2025.1.2 switch=n phases=2 Linecode=2P_Code3

New Line.clineacable(cramaee():s_dummy3015->s_dummy3018) Units=mi Length=0.0097563324823 bus1=s_dummy3015.1.2 bus2=s_dummy3018.1.2 switch=n phases=2 Linecode=2P_Code3

New Line.clineacable(cramaee():s_ncctt106->s_ncctt114) Units=mi Length=0.063945910981 bus1=s_ncctt106->s_ncctt114_s_s.2 bus2=s_ncctt106->s_ncctt114_s.2 switch=n phases=1 Linecode=1P_Code7

New Line.clineacable(cramaee():rclv3123->s_ncctt1779_bt) Units=mi Length=0.0321469393705 bus1=s_ncctt1779_bt.1.2 bus2=rclv3123.1.2 switch=n phases=2 Linecode=2P_Code3

New Line.clineacable(cramaee():rclv2753->s_dummy3176) Units=mi Length=0.0447856876476 bus1=s_dummy3176.1.2 bus2=rclv2753.1.2 switch=n phases=2 Linecode=2P_Code3

New Line.clineacable(cramaee():s_dummy1247->s_ncctt567_bt) Units=mi Length=0.0095077840823 bus1=s_ncctt567_bt.1.2 bus2=s_dummy1247.1.2 switch=n phases=2 Linecode=2P_Code1

New Line.clineacable(cramaee():rclv3155->s_ncctt1815_bt) Units=mi Length=0.000621371 bus1=s_ncctt1815_bt.1.2 bus2=rclv3155.1.2 switch=n phases=2 Linecode=2P_Code3

New Line.clineacable(cramaee():rclv5487->s_dummy3551) Units=mi Length=0.0216259477356 bus1=s_dummy3551.1.2 bus2=rclv5487.1.2 switch=n phases=2 Linecode=2P_Code1

New Line.clineacable(cramaee():rclv3421->s_dummy4021) Units=mi Length=0.063542019831 bus1=s_dummy4021.1.2 bus2=rclv3421.1.2 switch=n phases=2 Linecode=2P_Code1

New Line.clineacable(cramaee():s_dummy3417->s_ncctt1274_bt) Units=mi Length=0.0143943699005 bus1=s_ncctt1274_bt.1.2 bus2=s_dummy3417.1.2 switch=n phases=2 Linecode=2P_Code3

New Line.clineacable(cramaee():rclv5327->s_ncctt1535_bt) Units=mi Length=0.0153689281769 bus1=s_ncctt1535_bt.1.2 bus2=rclv5327.1.2 switch=n phases=2 Linecode=2P_Code3

New Line.clineacable(cramaee():s_dummy854->s_ncctt267_bt) Units=mi Length=0.000621371 bus1=s_ncctt267_bt.1.2 bus2=s_dummy854.1.2 switch=n phases=2 Linecode=2P_Code2

New Line.clineacable(cramaee():s_dummy220->s_ncctt16_bt) Units=mi Length=0.0167283015136 bus1=s_ncctt16_bt.1.2 bus2=s_dummy220.1.2 switch=n phases=2 Linecode=2P_Code3

New Line.switch(cramaee():s_ncctt1659->s_ncctt168)_s_1946 Units=mi Length=0.000621371 bus1=s_ncctt1659->s_ncctt168_s.1.2.3 bus2=s_ncctt1659.1.2.3 switch=y phases=3 Linecode=3P_Code6

New Line.clineacable(cramaee():rclv5659->s_dummy3017) Units=mi Length=0.0140317377849 bus1=s_dummy3017.1.2 bus2=rclv5659.1.2 switch=n phases=2 Linecode=2P_Code3

New Line.clineacable(cramaee():s_dummy534->s_dummy536) Units=mi Length=0.0098208307921 bus1=s_dummy536.1.2 bus2=s_dummy534.1.2 switch=n phases=2 Linecode=2P_Code3

New Line.clineacable(cramaee():rclv3072->s_dummy3127) Units=mi Length=0.0191077174839 bus1=s_dummy3127.1.2 bus2=rclv3072.1.2 switch=n phases=2 Linecode=2P_Code3

New Line.clineacable(cramaee():rclv4621->s_dummy999) Units=mi Length=0.0125329287958 bus1=s_dummy999.1.2 bus2=rclv4621.1.2 switch=n phases=2 Linecode=2P_Code3

New Line.clineacable(cramaee():s_ncctt1916->s_ncctt1918) Units=mi Length=0.0587472726466 bus1=s_ncctt1916->s_ncctt1918_s.1.2.3 bus2=s_ncctt1916->s_ncctt1918_s_s.1.2.3 switch=n phases=3 Linecode=3P_Code8

New Line.clineacable(cramaee():s_ncctt73->s_ncctt96) Units=mi Length=0.0107504639452 bus1=s_ncctt96.1.2.3 bus2=s_ncctt73.1.2.3 switch=n phases=3 Linecode=3P_Code5

New Line.clineacable(cramaee():s_dummy4446->s_ncctt1908_bt) Units=mi Length=0.000621371 bus1=s_ncctt1908_bt.1.2 bus2=s_dummy4446.1.2 switch=n phases=2 Linecode=2P_Code9

New Line.clineacable(cramaee():rclv1103->s_dummy4354) Units=mi Length=0.0409528849083 bus1=s_dummy4354.1.2 bus2=rclv1103.1.2 switch=n phases=2 Linecode=2P_Code3

New Line.clineacable(cramaee():s_dummy506->s_ncctt379_bt) Units=mi Length=0.0550527870919 bus1=s_ncctt379_bt.1.2 bus2=s_dummy506.1.2 switch=n phases=2 Linecode=2P_Code3

New Line.clineacable(cramaee():s_ncctt1622->s_ncctt1623) Units=mi Length=0.088765954205 bus1=s_ncctt1622.1.2.3 bus2=s_ncctt1623.1.2.3 switch=n phases=3 Linecode=3P_Code5

New Line.fuse(cramaee():s_ncctt2286->s_ncctt2297)_s_2366 Units=mi Length=0.000621371 bus1=s_ncctt2286.2 bus2=s_ncctt2286->s_ncctt2297_s.2 switch=y phases=3 Linecode=1P_Code4

New Line.clineacable(cramaee():rclv5406->s_dummy3452) Units=mi Length=0.06823896322 bus1=s_dummy3452.1.2 bus2=rclv5406.1.2 switch=n phases=2 Linecode=2P_Code3
...